Version 4
SHEET 1 880 680
WIRE 0 80 -48 80
WIRE 144 80 80 80
WIRE 256 80 144 80
WIRE 384 80 256 80
WIRE 144 144 144 80
WIRE 256 144 256 80
WIRE 384 144 384 80
WIRE -48 160 -48 80
WIRE -48 288 -48 240
WIRE 144 288 144 224
WIRE 144 288 -48 288
WIRE 160 288 144 288
WIRE 256 288 256 208
WIRE 256 288 160 288
WIRE 384 288 384 224
WIRE 384 288 256 288
FLAG 160 288 0
SYMBOL voltage -48 144 R0
WINDOW 123 24 124 Left 2
WINDOW 39 0 0 Left 0
SYMATTR Value2 AC 1
SYMATTR InstName V1
SYMATTR Value ""
SYMBOL ind 128 128 R0
SYMATTR InstName L1
SYMATTR Value 1µ
SYMBOL cap 240 144 R0
SYMATTR InstName C1
SYMATTR Value 10n
SYMBOL res -16 96 R270
WINDOW 0 32 56 VTop 2
WINDOW 3 0 56 VBottom 2
SYMATTR InstName R1
SYMATTR Value 100
SYMBOL res 368 128 R0
SYMATTR InstName R2
SYMATTR Value 1k
TEXT -80 312 Left 2 !.ac dec 50 1 10G
