Version 4
SHEET 1 904 680
WIRE 672 -80 576 -80
WIRE 848 -80 736 -80
WIRE 576 -16 576 -80
WIRE 848 -16 848 -80
WIRE -256 80 -304 80
WIRE 16 80 -176 80
WIRE 128 80 16 80
WIRE 256 80 128 80
WIRE 576 128 576 64
WIRE 672 128 576 128
WIRE 848 128 848 64
WIRE 848 128 672 128
WIRE 16 144 16 80
WIRE 128 144 128 80
WIRE 256 144 256 80
WIRE -304 160 -304 80
WIRE -304 288 -304 240
WIRE -128 288 -304 288
WIRE 16 288 16 224
WIRE 16 288 -128 288
WIRE 128 288 128 208
WIRE 128 288 16 288
WIRE 256 288 256 224
WIRE 256 288 128 288
FLAG -128 288 0
FLAG 672 128 0
SYMBOL voltage -304 144 R0
WINDOW 123 24 124 Left 2
WINDOW 39 0 0 Left 0
SYMATTR Value2 AC 1
SYMATTR InstName V1
SYMATTR Value ""
SYMBOL ind 0 128 R0
SYMATTR InstName L1
SYMATTR Value 1µ
SYMBOL cap 112 144 R0
SYMATTR InstName C1
SYMATTR Value 10n
SYMBOL res -272 96 R270
WINDOW 0 32 56 VTop 2
WINDOW 3 0 56 VBottom 2
SYMATTR InstName R1
SYMATTR Value 100
SYMBOL res 240 128 R0
SYMATTR InstName R2
SYMATTR Value 100
SYMBOL ind 560 -32 R0
SYMATTR InstName L2
SYMATTR Value 1µ
SYMBOL cap 736 -96 R90
WINDOW 0 0 32 VBottom 2
WINDOW 3 32 32 VTop 2
SYMATTR InstName C3
SYMATTR Value 10n
SYMBOL res 832 -32 R0
SYMATTR InstName R3
SYMATTR Value 1k
TEXT -336 312 Left 2 !.ac dec 50 1 10G
