Version 4
SHEET 1 1796 888
WIRE 192 -608 192 -624
WIRE 272 -608 192 -608
WIRE 192 -592 192 -608
WIRE 272 -592 272 -608
WIRE 192 -448 192 -512
WIRE 272 -448 272 -528
WIRE 272 -448 192 -448
WIRE 96 -432 -32 -432
WIRE 192 -432 192 -448
WIRE 192 -432 96 -432
WIRE 1168 -432 1040 -432
WIRE 1216 -432 1168 -432
WIRE 1312 -432 1216 -432
WIRE 1504 -432 1408 -432
WIRE 1408 -384 1408 -432
WIRE 1504 -368 1504 -432
WIRE 192 -352 192 -432
WIRE 192 -352 144 -352
WIRE 240 -352 192 -352
WIRE 1216 -352 1216 -432
WIRE 1312 -336 1312 -432
WIRE 144 -320 144 -352
WIRE 240 -320 240 -352
WIRE 1040 -272 1040 -432
WIRE 1408 -272 1408 -304
WIRE 1456 -272 1408 -272
WIRE 1504 -272 1504 -304
WIRE 1504 -272 1456 -272
WIRE 1216 -240 1216 -272
WIRE 1264 -240 1216 -240
WIRE 144 -192 144 -256
WIRE 192 -192 144 -192
WIRE 240 -192 240 -240
WIRE 240 -192 192 -192
WIRE -32 -160 -32 -432
WIRE 1264 -144 1264 -240
WIRE 1264 -144 1184 -144
WIRE 192 -96 192 -192
WIRE 288 -96 192 -96
WIRE 448 -96 352 -96
WIRE 608 -96 512 -96
WIRE 704 -96 608 -96
WIRE 912 -96 704 -96
WIRE 1040 -96 1040 -192
WIRE 1040 -96 976 -96
WIRE 1120 -96 1040 -96
WIRE 192 -32 192 -96
WIRE 192 -32 112 -32
WIRE 1040 -32 1040 -96
WIRE 1184 -16 1184 -48
WIRE 1264 -16 1184 -16
WIRE 608 0 608 -96
WIRE -320 16 -528 16
WIRE -240 16 -320 16
WIRE -160 16 -240 16
WIRE -32 16 -32 -80
WIRE -32 16 -96 16
WIRE 48 16 -32 16
WIRE 704 16 704 -96
WIRE 1184 32 1184 -16
WIRE 1264 32 1264 -16
WIRE -320 48 -320 16
WIRE -240 48 -240 16
WIRE -32 80 -32 16
WIRE 112 112 112 64
WIRE 192 112 112 112
WIRE 608 112 608 80
WIRE 640 112 608 112
WIRE 704 112 704 80
WIRE 704 112 640 112
WIRE 112 144 112 112
WIRE 1040 144 1040 48
WIRE 1168 144 1040 144
WIRE 1184 144 1184 112
WIRE 1184 144 1168 144
WIRE 1264 144 1264 96
WIRE 1264 144 1184 144
WIRE 192 160 192 112
WIRE -528 176 -528 16
WIRE -320 176 -320 112
WIRE -272 176 -320 176
WIRE -240 176 -240 128
WIRE -240 176 -272 176
WIRE -32 256 -32 160
WIRE 96 256 -32 256
WIRE 112 256 112 224
WIRE 112 256 96 256
WIRE 192 256 192 224
WIRE 192 256 112 256
WIRE -528 288 -528 256
WIRE -528 400 -528 368
FLAG -528 400 0
FLAG 96 256 0
FLAG 96 -432 VCC+
FLAG -272 176 0
FLAG 192 -624 0
FLAG 640 112 0
FLAG 1168 144 0
FLAG 1168 -432 VCC+
FLAG 1456 -272 0
SYMBOL cap 128 -320 R0
SYMATTR InstName C1
SYMATTR Value 10n
SYMBOL ind 224 -336 R0
SYMATTR InstName L1
SYMATTR Value 1µ
SYMBOL voltage -528 272 R0
WINDOW 123 0 0 Left 0
WINDOW 39 0 0 Left 0
SYMATTR InstName V1
SYMATTR Value SFFM(0 10m 1.5meg 1 10k)
SYMBOL res -544 160 R0
SYMATTR InstName R1
SYMATTR Value 50
SYMBOL cap 688 16 R0
SYMATTR InstName C2
SYMATTR Value 1µ
SYMBOL res -48 -176 R0
SYMATTR InstName R3
SYMATTR Value 50k
SYMBOL res -48 64 R0
SYMATTR InstName R4
SYMATTR Value 60k
SYMBOL cap -96 0 R90
WINDOW 0 0 32 VBottom 2
WINDOW 3 32 32 VTop 2
SYMATTR InstName C3
SYMATTR Value 1µ
SYMBOL npn 48 -32 R0
SYMATTR InstName Q1
SYMATTR Value 2N2222
SYMBOL cap -336 48 R0
SYMATTR InstName C4
SYMATTR Value 50p
SYMBOL ind -256 32 R0
SYMATTR InstName L2
SYMATTR Value 470µ
SYMBOL voltage 192 -496 R180
WINDOW 0 24 96 Left 2
WINDOW 3 24 16 Left 2
WINDOW 123 0 0 Left 0
WINDOW 39 24 68 Left 2
SYMATTR InstName V2
SYMATTR Value 5
SYMATTR SpiceLine Rser=10
SYMBOL res 96 128 R0
SYMATTR InstName R6
SYMATTR Value 10
SYMBOL cap 176 160 R0
SYMATTR InstName C6
SYMATTR Value 1µ
SYMBOL diode 448 -80 R270
WINDOW 0 32 32 VTop 2
WINDOW 3 0 32 VBottom 2
SYMATTR InstName D1
SYMBOL res 1024 -288 R0
SYMATTR InstName R5
SYMATTR Value 50k
SYMBOL res 1024 -48 R0
SYMATTR InstName R8
SYMATTR Value 60k
SYMBOL npn 1120 -144 R0
SYMATTR InstName Q2
SYMATTR Value 2N2222
SYMBOL res 1168 16 R0
SYMATTR InstName R9
SYMATTR Value 10
SYMBOL cap 1248 32 R0
SYMATTR InstName C8
SYMATTR Value 1µ
SYMBOL cap 352 -112 R90
WINDOW 0 0 32 VBottom 2
WINDOW 3 32 32 VTop 2
SYMATTR InstName C9
SYMATTR Value 1µ
SYMBOL ind 592 -16 R0
SYMATTR InstName L3
SYMATTR Value 470µ
SYMBOL cap 976 -112 R90
WINDOW 0 0 32 VBottom 2
WINDOW 3 32 32 VTop 2
SYMATTR InstName C5
SYMATTR Value 1µ
SYMBOL cap 1488 -368 R0
SYMATTR InstName C7
SYMATTR Value 1µ
SYMBOL ind 1392 -400 R0
SYMATTR InstName L4
SYMATTR Value 470µ
SYMBOL cap 256 -592 R0
SYMATTR InstName C10
SYMATTR Value 470µ
SYMBOL res 1200 -368 R0
SYMATTR InstName R2
SYMATTR Value 200
TEXT -560 424 Left 2 !.tran 12m
TEXT 48 296 Left 2 ;Amplifier
TEXT -304 240 Left 2 ;BP filter
TEXT 1120 184 Left 2 ;Amplifier
