Version 4
SHEET 1 1128 888
WIRE 192 -592 192 -624
WIRE 96 -432 -32 -432
WIRE 192 -432 192 -512
WIRE 192 -432 96 -432
WIRE 192 -352 192 -432
WIRE 192 -352 144 -352
WIRE 240 -352 192 -352
WIRE 144 -320 144 -352
WIRE 240 -320 240 -352
WIRE 144 -192 144 -256
WIRE 192 -192 144 -192
WIRE 240 -192 240 -240
WIRE 240 -192 192 -192
WIRE -32 -160 -32 -432
WIRE 368 -128 304 -128
WIRE 528 -128 432 -128
WIRE 624 -128 528 -128
WIRE 192 -32 192 -192
WIRE 192 -32 112 -32
WIRE 528 -32 528 -128
WIRE 624 -16 624 -128
WIRE -320 16 -528 16
WIRE -240 16 -320 16
WIRE -160 16 -240 16
WIRE -32 16 -32 -80
WIRE -32 16 -96 16
WIRE 48 16 -32 16
WIRE -320 48 -320 16
WIRE -240 48 -240 16
WIRE -32 80 -32 16
WIRE 528 80 528 48
WIRE 560 80 528 80
WIRE 624 80 624 48
WIRE 624 80 560 80
WIRE 112 112 112 64
WIRE 192 112 112 112
WIRE 112 144 112 112
WIRE 192 160 192 112
WIRE -528 176 -528 16
WIRE -320 176 -320 112
WIRE -272 176 -320 176
WIRE -240 176 -240 128
WIRE -240 176 -272 176
WIRE -32 256 -32 160
WIRE 96 256 -32 256
WIRE 112 256 112 224
WIRE 112 256 96 256
WIRE 192 256 192 224
WIRE 192 256 112 256
WIRE -528 288 -528 256
WIRE -528 400 -528 368
FLAG -528 400 0
FLAG 96 256 0
FLAG 96 -432 VCC+
FLAG -272 176 0
FLAG 192 -624 0
FLAG 560 80 0
SYMBOL cap 128 -320 R0
SYMATTR InstName C1
SYMATTR Value 10n
SYMBOL ind 224 -336 R0
SYMATTR InstName L1
SYMATTR Value 1µ
SYMBOL voltage -528 272 R0
WINDOW 123 0 0 Left 0
WINDOW 39 0 0 Left 0
SYMATTR InstName V1
SYMATTR Value SFFM(0 10m 1.5meg 1 100k)
SYMBOL res -544 160 R0
SYMATTR InstName R1
SYMATTR Value 50
SYMBOL res 512 -48 R0
SYMATTR InstName R2
SYMATTR Value 5k
SYMBOL cap 608 -16 R0
SYMATTR InstName C2
SYMATTR Value 320p
SYMBOL res -48 -176 R0
SYMATTR InstName R3
SYMATTR Value 50k
SYMBOL res -48 64 R0
SYMATTR InstName R4
SYMATTR Value 60k
SYMBOL cap -96 0 R90
WINDOW 0 0 32 VBottom 2
WINDOW 3 32 32 VTop 2
SYMATTR InstName C3
SYMATTR Value 1µ
SYMBOL npn 48 -32 R0
SYMATTR InstName Q1
SYMATTR Value 2N2222
SYMBOL cap -336 48 R0
SYMATTR InstName C4
SYMATTR Value 13p
SYMBOL ind -256 32 R0
SYMATTR InstName L2
SYMATTR Value 470µ
SYMBOL voltage 192 -496 R180
WINDOW 0 24 96 Left 2
WINDOW 3 24 16 Left 2
WINDOW 123 0 0 Left 0
WINDOW 39 24 68 Left 2
SYMATTR InstName V2
SYMATTR Value 5
SYMATTR SpiceLine Rser=10
SYMBOL res 96 128 R0
SYMATTR InstName R6
SYMATTR Value 10
SYMBOL cap 176 160 R0
SYMATTR InstName C6
SYMATTR Value 1µ
SYMBOL diode 368 -112 R270
WINDOW 0 32 32 VTop 2
WINDOW 3 0 32 VBottom 2
SYMATTR InstName D1
SYMBOL res 320 -144 R90
WINDOW 0 0 56 VBottom 2
WINDOW 3 32 56 VTop 2
SYMATTR InstName R7
SYMATTR Value 10k
TEXT -560 424 Left 2 !.tran .5m
TEXT 48 296 Left 2 ;Amplifier
TEXT -304 240 Left 2 ;BP filter
