Version 4
SHEET 1 880 680
WIRE 48 96 -64 96
WIRE 192 96 128 96
WIRE 288 96 272 96
WIRE 288 128 288 96
WIRE -64 176 -64 96
WIRE 288 224 288 192
WIRE -64 288 -64 256
FLAG 288 224 0
FLAG -64 288 0
SYMBOL ind 32 112 R270
WINDOW 0 32 56 VTop 2
WINDOW 3 5 56 VBottom 2
SYMATTR InstName L1
SYMATTR Value 1
SYMBOL cap 272 128 R0
SYMATTR InstName C1
SYMATTR Value 1
SYMBOL res 288 80 R90
WINDOW 0 0 56 VBottom 2
WINDOW 3 32 56 VTop 2
SYMATTR InstName R1
SYMATTR Value .4
SYMBOL voltage -64 160 R0
WINDOW 123 24 124 Left 2
WINDOW 39 0 0 Left 0
SYMATTR InstName V1
SYMATTR Value ""
SYMATTR Value2 AC 1
TEXT -98 312 Left 2 !.ac dec 50 1u 1k
