Version 4
SHEET 1 880 680
WIRE -48 -192 -208 -192
WIRE 224 -192 -48 -192
WIRE 224 -144 224 -192
WIRE 224 -144 176 -144
WIRE 256 -144 224 -144
WIRE 384 -144 256 -144
WIRE 176 -96 176 -144
WIRE 384 -96 384 -144
WIRE -208 -80 -208 -192
WIRE 256 -80 256 -144
WIRE -48 -48 -48 -192
WIRE 176 32 176 -16
WIRE 176 32 144 32
WIRE 256 32 256 -16
WIRE 256 32 176 32
WIRE 384 32 384 -16
WIRE 384 32 256 32
WIRE 464 32 384 32
WIRE 592 32 528 32
WIRE -208 64 -208 0
WIRE 592 64 592 32
WIRE 176 80 176 32
WIRE -144 128 -192 128
WIRE -48 128 -48 32
WIRE -48 128 -80 128
WIRE 112 128 -48 128
WIRE -48 192 -48 128
WIRE 592 192 592 144
WIRE 176 224 176 176
WIRE -48 336 -48 272
WIRE 176 336 176 304
WIRE 176 336 -48 336
WIRE 176 352 176 336
FLAG 176 352 0
FLAG -208 64 0
FLAG 592 192 0
FLAG -192 128 0
SYMBOL npn 112 80 R0
SYMATTR InstName Q1
SYMATTR Value 2N2222
SYMBOL cap 240 -80 R0
SYMATTR InstName C2
SYMATTR Value 1µ
SYMBOL ind 160 -112 R0
SYMATTR InstName L1
SYMATTR Value 1µ
SYMBOL voltage -208 -96 R0
WINDOW 123 0 0 Left 0
WINDOW 39 0 0 Left 0
SYMATTR InstName V1
SYMATTR Value 3
SYMBOL cap 528 16 R90
WINDOW 0 0 32 VBottom 2
WINDOW 3 32 32 VTop 2
SYMATTR InstName C3
SYMATTR Value 4
SYMBOL res 576 48 R0
SYMATTR InstName R3
SYMATTR Value 50
SYMBOL res -64 -64 R0
SYMATTR InstName R1
SYMATTR Value 2.25k
SYMBOL res -64 176 R0
SYMATTR InstName R2
SYMATTR Value 450
SYMBOL res 160 208 R0
SYMATTR InstName R4
SYMATTR Value 5
SYMBOL cap -80 112 R90
WINDOW 0 0 32 VBottom 2
WINDOW 3 32 32 VTop 2
SYMATTR InstName C1
SYMATTR Value 1µ
TEXT -240 376 Left 2 !;tran 10m
TEXT -472 336 Left 2 !;ic I(L1)=1p
TEXT -240 312 Left 2 !.op
