Version 4
SHEET 1 1944 680
WIRE 544 -240 416 -240
WIRE 640 -240 544 -240
WIRE 1008 -224 864 -224
WIRE 1104 -224 1072 -224
WIRE 1248 -224 1184 -224
WIRE 1312 -224 1248 -224
WIRE 1888 -224 1312 -224
WIRE 640 -160 640 -240
WIRE 416 -128 416 -240
WIRE 1248 -128 1248 -224
WIRE 1312 -112 1312 -224
WIRE 640 -32 640 -80
WIRE 864 -32 864 -224
WIRE 864 -32 640 -32
WIRE -416 0 -416 -48
WIRE 640 0 640 -32
WIRE 640 0 560 0
WIRE 1248 0 1248 -48
WIRE 1296 0 1248 0
WIRE 1312 0 1312 -48
WIRE 1312 0 1296 0
WIRE -144 48 -144 -32
WIRE -112 48 -144 48
WIRE 128 48 -32 48
WIRE 208 48 128 48
WIRE 288 48 208 48
WIRE 416 48 416 -48
WIRE 416 48 352 48
WIRE 496 48 416 48
WIRE 1888 48 1888 -224
WIRE -560 64 -560 16
WIRE 128 80 128 48
WIRE 208 80 208 48
WIRE 576 96 560 96
WIRE 640 96 576 96
WIRE 416 112 416 48
WIRE -416 128 -416 80
WIRE -112 128 -144 128
WIRE 864 144 864 -32
WIRE 1040 144 864 144
WIRE 1136 144 1104 144
WIRE 1280 144 1216 144
WIRE 1344 144 1280 144
WIRE 1648 144 1344 144
WIRE 640 160 640 96
WIRE -560 176 -560 144
WIRE 576 176 576 96
WIRE -144 192 -144 128
WIRE 1888 192 1888 128
WIRE 128 208 128 144
WIRE 176 208 128 208
WIRE 208 208 208 160
WIRE 208 208 176 208
WIRE 1280 240 1280 144
WIRE 1648 240 1648 144
WIRE -416 256 -416 208
WIRE 1344 256 1344 144
WIRE 416 288 416 192
WIRE 544 288 416 288
WIRE 576 288 576 240
WIRE 576 288 544 288
WIRE 640 288 640 240
WIRE 640 288 576 288
WIRE 1280 368 1280 320
WIRE 1328 368 1280 368
WIRE 1344 368 1344 320
WIRE 1344 368 1328 368
WIRE 1648 384 1648 320
FLAG -144 192 0
FLAG 176 208 0
FLAG -560 176 0
FLAG -416 256 0
FLAG 544 288 0
FLAG -560 16 VCC+
FLAG 544 -240 VCC+
FLAG -416 -48 VIN
FLAG -144 -32 VIN
FLAG 1888 192 0
FLAG 1648 384 0
FLAG 1296 0 0
FLAG 1328 368 0
SYMBOL cap 112 80 R0
SYMATTR InstName C1
SYMATTR Value 13p
SYMBOL ind 192 64 R0
SYMATTR InstName L1
SYMATTR Value 470µ
SYMBOL res -16 32 R90
WINDOW 0 0 56 VBottom 2
WINDOW 3 32 56 VTop 2
SYMATTR InstName R1
SYMATTR Value 100
SYMBOL voltage -416 -16 R0
WINDOW 123 0 0 Left 0
WINDOW 39 0 0 Left 0
SYMATTR InstName V1
SYMATTR Value SINE(0 1m 9meg)
SYMBOL voltage -416 112 R0
WINDOW 123 0 0 Left 0
WINDOW 39 0 0 Left 0
SYMATTR InstName V2
SYMATTR Value 0
SYMBOL res 400 -144 R0
SYMATTR InstName R2
SYMATTR Value 20k
SYMBOL res 400 96 R0
SYMATTR InstName R3
SYMATTR Value 15k
SYMBOL cap 352 32 R90
WINDOW 0 0 32 VBottom 2
WINDOW 3 32 32 VTop 2
SYMATTR InstName C2
SYMATTR Value 1n
SYMBOL res 624 -176 R0
SYMATTR InstName R4
SYMATTR Value 220
SYMBOL res 624 144 R0
SYMATTR InstName R5
SYMATTR Value 22
SYMBOL npn 496 0 R0
SYMATTR InstName Q1
SYMBOL voltage -560 48 R0
WINDOW 123 0 0 Left 0
WINDOW 39 0 0 Left 0
SYMATTR InstName V3
SYMATTR Value 5
SYMBOL cap 560 176 R0
SYMATTR InstName C9
SYMATTR Value 1n
SYMBOL res 1872 32 R0
SYMATTR InstName R6
SYMATTR Value 1k
SYMBOL res 1632 224 R0
SYMATTR InstName R7
SYMATTR Value 1k
SYMBOL ind 1232 -144 R0
SYMATTR InstName L2
SYMATTR Value 6µ
SYMBOL ind 1088 -208 R270
WINDOW 0 32 56 VTop 2
WINDOW 3 5 56 VBottom 2
SYMATTR InstName L3
SYMATTR Value 111µ
SYMBOL cap 1296 -112 R0
SYMATTR InstName C3
SYMATTR Value 57p
SYMBOL cap 1072 -240 R90
WINDOW 0 0 32 VBottom 2
WINDOW 3 32 32 VTop 2
SYMATTR InstName C4
SYMATTR Value 3p
SYMBOL ind 1264 224 R0
SYMATTR InstName L4
SYMATTR Value 57µ
SYMBOL ind 1120 160 R270
WINDOW 0 32 56 VTop 2
WINDOW 3 5 56 VBottom 2
SYMATTR InstName L5
SYMATTR Value 111µ
SYMBOL cap 1328 256 R0
SYMATTR InstName C5
SYMATTR Value 57p
SYMBOL cap 1104 128 R90
WINDOW 0 0 32 VBottom 2
WINDOW 3 32 32 VTop 2
SYMATTR InstName C6
SYMATTR Value 25p
TEXT -216 256 Left 2 ;Antenna
TEXT 144 272 Left 2 ;BP filter
TEXT 480 304 Left 2 ;Amplifier
TEXT -594 424 Left 2 !.tran 2m startup
TEXT 1144 488 Left 2 ;BP filters RF
