Version 4
SHEET 1 1472 680
WIRE 1008 -1104 560 -1104
WIRE 1008 -1024 1008 -1104
WIRE 800 -800 800 -848
WIRE 848 -800 800 -800
WIRE 976 -800 928 -800
WIRE 1008 -800 1008 -960
WIRE 1008 -800 976 -800
WIRE 1136 -800 1008 -800
WIRE 1328 -800 1216 -800
WIRE 1328 -720 1328 -800
WIRE 976 -672 976 -800
WIRE 736 -608 720 -608
WIRE 752 -608 736 -608
WIRE 880 -608 832 -608
WIRE 928 -608 880 -608
WIRE 1056 -608 1024 -608
WIRE 1184 -608 1056 -608
WIRE 1328 -608 1328 -720
WIRE 1328 -608 1264 -608
WIRE -192 -560 -208 -560
WIRE -128 -560 -192 -560
WIRE 80 -560 -48 -560
WIRE 736 -528 736 -608
WIRE 768 -528 736 -528
WIRE 880 -528 880 -608
WIRE 880 -528 832 -528
WIRE 80 -496 80 -560
WIRE -416 -480 -416 -512
WIRE 80 -384 80 -416
WIRE 880 -384 736 -384
WIRE 1056 -384 1056 -608
WIRE 1056 -384 960 -384
WIRE -416 -368 -416 -400
WIRE -416 -320 -416 -368
WIRE 560 -320 560 -1104
WIRE 736 -320 736 -384
WIRE 736 -320 560 -320
WIRE 736 -256 736 -320
WIRE 784 -256 736 -256
WIRE 896 -256 848 -256
WIRE 944 -256 896 -256
WIRE 1056 -256 1056 -384
WIRE 1056 -256 1008 -256
WIRE 112 -224 0 -224
WIRE 192 -224 112 -224
WIRE -416 -208 -416 -240
WIRE 192 -160 192 -224
WIRE 0 -112 0 -224
WIRE 1056 -16 1056 -256
WIRE 1088 -16 1056 -16
WIRE 1392 16 1280 16
WIRE 192 48 192 -80
WIRE 416 48 192 48
WIRE 544 48 416 48
WIRE 1088 48 544 48
WIRE 192 80 192 48
WIRE -224 96 -304 96
WIRE 0 96 0 -32
WIRE 0 96 -160 96
WIRE 544 96 544 48
WIRE 0 128 0 96
WIRE 128 128 0 128
WIRE 416 144 416 48
WIRE 0 176 0 128
WIRE 544 208 544 160
WIRE 192 224 192 176
WIRE 272 224 192 224
WIRE 544 256 544 208
WIRE 192 272 192 224
WIRE 272 272 272 224
WIRE 0 304 0 256
WIRE 0 304 -48 304
WIRE 192 368 192 352
WIRE 272 368 272 336
WIRE 272 368 192 368
WIRE 416 368 416 224
WIRE 480 368 416 368
WIRE 544 368 544 320
WIRE 544 368 480 368
WIRE 192 384 192 368
WIRE -304 544 -304 96
WIRE 480 544 480 368
WIRE 480 544 -304 544
FLAG -416 -368 0
FLAG 192 384 0
FLAG -48 304 0
FLAG 544 208 0
FLAG 80 -384 0
FLAG 720 -608 0
FLAG 800 -848 0
FLAG 896 -256 0
FLAG -416 -512 5V+
FLAG 112 -224 5V+
FLAG 1328 -720 5V+
FLAG 1184 -80 5V+
FLAG 1280 112 5V+
FLAG 1248 224 0
FLAG -416 -208 5V-
FLAG 1120 224 5V-
FLAG -192 -560 VCTRL
FLAG 1088 112 VCTRL
FLAG 1392 16 VOUT
DATAFLAG 192 224 ""
DATAFLAG 80 128 ""
DATAFLAG 880 -608 ""
DATAFLAG 976 -720 ""
SYMBOL res 16 -16 R180
WINDOW 0 36 76 Left 2
WINDOW 3 36 40 Left 2
SYMATTR InstName R1
SYMATTR Value 80k
SYMBOL voltage -416 -496 R0
WINDOW 3 24 44 Left 2
WINDOW 123 0 0 Left 0
WINDOW 39 24 72 Left 2
SYMATTR Value 5
SYMATTR SpiceLine Rser=10
SYMATTR InstName V1
SYMBOL res -16 160 R0
SYMATTR InstName R4
SYMATTR Value 50k
SYMBOL cap 528 96 R0
SYMATTR InstName C3
SYMATTR Value 30p
SYMBOL cap 528 256 R0
SYMATTR InstName C5
SYMATTR Value 30p
SYMBOL ind 400 128 R0
SYMATTR InstName L2
SYMATTR Value 10µ
SYMBOL res 176 256 R0
SYMATTR InstName R2
SYMATTR Value 15
SYMBOL cap 256 272 R0
SYMATTR InstName C6
SYMATTR Value 1µ
SYMBOL res 176 -176 R0
SYMATTR InstName R5
SYMATTR Value 400
SYMBOL cap -160 80 R90
WINDOW 0 0 32 VBottom 2
WINDOW 3 32 32 VTop 2
SYMATTR InstName C1
SYMATTR Value 100p
SYMBOL npn 128 80 R0
SYMATTR InstName Q1
SYMATTR Value 2N2222
SYMBOL voltage 80 -512 R0
WINDOW 123 0 0 Left 0
WINDOW 39 0 0 Left 0
SYMATTR InstName V2
SYMATTR Value PULSE(0 3.3 0 0 0 .5m 1m)
SYMBOL res -32 -576 R90
WINDOW 0 0 56 VBottom 2
WINDOW 3 32 56 VTop 2
SYMATTR InstName R3
SYMATTR Value 10
SYMBOL res 1120 -784 R270
WINDOW 0 32 56 VTop 2
WINDOW 3 0 56 VBottom 2
SYMATTR InstName R6
SYMATTR Value 80k
SYMBOL voltage -416 -336 R0
WINDOW 3 24 44 Left 2
WINDOW 123 0 0 Left 0
WINDOW 39 24 72 Left 2
SYMATTR Value 5
SYMATTR SpiceLine Rser=10
SYMATTR InstName V3
SYMBOL res 944 -816 R90
WINDOW 0 0 56 VBottom 2
WINDOW 3 32 56 VTop 2
SYMATTR InstName R7
SYMATTR Value 50k
SYMBOL cap 1008 -272 R90
WINDOW 0 0 32 VBottom 2
WINDOW 3 32 32 VTop 2
SYMATTR InstName C2
SYMATTR Value 500p
SYMBOL cap 848 -272 R90
WINDOW 0 0 32 VBottom 2
WINDOW 3 32 32 VTop 2
SYMATTR InstName C4
SYMATTR Value 500p
SYMBOL ind 976 -400 R90
WINDOW 0 5 56 VBottom 2
WINDOW 3 32 56 VTop 2
SYMATTR InstName L1
SYMATTR Value 10µ
SYMBOL res 848 -624 R90
WINDOW 0 0 56 VBottom 2
WINDOW 3 32 56 VTop 2
SYMATTR InstName R8
SYMATTR Value 15
SYMBOL cap 832 -544 R90
WINDOW 0 0 32 VBottom 2
WINDOW 3 32 32 VTop 2
SYMATTR InstName C7
SYMATTR Value 1µ
SYMBOL res 1280 -624 R90
WINDOW 0 0 56 VBottom 2
WINDOW 3 32 56 VTop 2
SYMATTR InstName R9
SYMATTR Value 400
SYMBOL cap 1024 -960 R180
WINDOW 0 24 56 Left 2
WINDOW 3 24 8 Left 2
SYMATTR InstName C8
SYMATTR Value 100p
SYMBOL npn 1024 -672 R90
SYMATTR InstName Q2
SYMATTR Value 2N2222
SYMBOL Switches\\ADG1419 1184 64 R0
SYMATTR InstName U2
TEXT -144 360 Left 2 !.op
TEXT -144 408 Left 2 !.tran 10m startup
TEXT -136 440 Left 2 !;ic I(L2)=1f
