Version 4
SHEET 1 880 680
WIRE 80 -192 80 -224
WIRE 80 -64 80 -112
WIRE 80 -64 -16 -64
WIRE 160 -64 80 -64
WIRE 160 -32 160 -64
WIRE -16 -16 -16 -64
WIRE 160 128 160 48
WIRE -240 160 -336 160
WIRE -16 160 -16 64
WIRE -16 160 -176 160
WIRE -16 176 -16 160
WIRE 96 176 -16 176
WIRE -336 208 -336 160
WIRE -16 240 -16 176
WIRE -16 240 -32 240
WIRE -32 272 -32 240
WIRE -336 320 -336 288
WIRE 160 320 160 224
WIRE -32 464 -32 352
WIRE 160 480 160 400
FLAG 80 -224 0
FLAG 160 480 0
FLAG -32 464 0
FLAG -336 320 0
SYMBOL npn 96 128 R0
SYMATTR InstName Q1
SYMBOL res -32 -32 R0
SYMATTR InstName R1
SYMATTR Value 100k
SYMBOL res -48 256 R0
SYMATTR InstName R2
SYMATTR Value 100k
SYMBOL res 144 304 R0
SYMATTR InstName R3
SYMATTR Value 500
SYMBOL res 144 -48 R0
SYMATTR InstName R4
SYMATTR Value 4500
SYMBOL voltage 80 -96 R180
WINDOW 0 24 96 Left 2
WINDOW 3 24 16 Left 2
WINDOW 123 0 0 Left 0
WINDOW 39 0 0 Left 0
SYMATTR InstName V1
SYMATTR Value 5
SYMBOL voltage -336 192 R0
WINDOW 123 0 0 Left 0
WINDOW 39 0 0 Left 0
SYMATTR InstName V2
SYMATTR Value SINE(0 .2 1k)
SYMBOL cap -176 144 R90
WINDOW 0 0 32 VBottom 2
WINDOW 3 32 32 VTop 2
SYMATTR InstName C1
SYMATTR Value 1µ
TEXT -248 536 Left 2 !.tran 10m
