Version 4
SHEET 1 1092 680
WIRE 160 -656 160 -768
WIRE 160 -528 160 -576
WIRE 288 -528 160 -528
WIRE 288 -480 288 -528
WIRE 160 -464 160 -528
WIRE 96 -416 -16 -416
WIRE 160 -304 160 -368
WIRE 160 -304 96 -304
WIRE 240 -304 160 -304
WIRE 288 -304 288 -416
WIRE 288 -304 240 -304
WIRE 400 -304 288 -304
WIRE 96 -256 96 -304
WIRE 240 -256 240 -304
WIRE 96 -128 96 -192
WIRE 160 -128 96 -128
WIRE 240 -128 240 -176
WIRE 240 -128 160 -128
WIRE 160 -80 160 -128
WIRE 400 -80 400 -304
WIRE 160 96 160 48
WIRE 160 96 112 96
WIRE 224 96 160 96
WIRE 112 128 112 96
WIRE 224 128 224 96
WIRE -288 160 -336 160
WIRE -144 160 -208 160
WIRE -16 160 -80 160
WIRE -496 192 -496 144
WIRE -336 208 -336 160
WIRE 112 224 112 192
WIRE 160 224 112 224
WIRE 224 224 224 208
WIRE 224 224 160 224
WIRE 480 224 224 224
WIRE 160 272 160 224
WIRE 480 288 480 224
WIRE -496 304 -496 272
WIRE -336 320 -336 288
WIRE -16 320 -16 160
WIRE 96 320 -16 320
WIRE 112 320 96 320
WIRE 480 400 480 368
WIRE 160 496 160 368
FLAG -496 304 0
FLAG 160 496 0
FLAG -336 320 0
FLAG -496 144 v+
FLAG 480 400 0
FLAG 160 -768 v+
FLAG 160 -80 0
FLAG 160 48 v+
SYMBOL npn 96 272 R0
SYMATTR InstName Q1
SYMBOL voltage -496 176 R0
WINDOW 0 24 96 Left 2
WINDOW 3 24 16 Left 2
WINDOW 123 0 0 Left 0
WINDOW 39 0 0 Left 0
SYMATTR InstName V1
SYMATTR Value 5
SYMBOL voltage -336 192 R0
WINDOW 123 0 0 Left 0
WINDOW 39 0 0 Left 0
SYMATTR InstName V2
SYMATTR Value PULSE(0 5 0 0 0 .5m 1m)
SYMBOL pnp 96 -368 M180
SYMATTR InstName Q2
SYMBOL res 464 272 R0
SYMATTR InstName R4
SYMATTR Value 50
SYMBOL cap 80 -256 R0
SYMATTR InstName C3
SYMATTR Value 5µ
SYMBOL ind 224 -272 R0
SYMATTR InstName L1
SYMATTR Value 5n
SYMBOL cap 96 128 R0
SYMATTR InstName C4
SYMATTR Value 50µ
SYMBOL ind 208 112 R0
SYMATTR InstName L2
SYMATTR Value 50n
SYMBOL res -192 144 R90
WINDOW 0 0 56 VBottom 2
WINDOW 3 32 56 VTop 2
SYMATTR InstName R1
SYMATTR Value 50
SYMBOL res 144 -672 R0
SYMATTR InstName R2
SYMATTR Value 1k
SYMBOL cap 304 -416 R180
WINDOW 0 24 56 Left 2
WINDOW 3 24 8 Left 2
SYMATTR InstName C1
SYMATTR Value 5µ
SYMBOL cap -80 144 R90
WINDOW 0 0 32 VBottom 2
WINDOW 3 32 32 VTop 2
SYMATTR InstName C5
SYMATTR Value 1n
TEXT -248 536 Left 2 !.tran 10m
