Version 4
SHEET 1 944 916
WIRE 176 -32 80 -32
WIRE 400 -32 256 -32
WIRE -80 48 -208 48
WIRE 80 48 80 -32
WIRE 80 48 -16 48
WIRE -272 112 -272 80
WIRE 80 128 80 48
WIRE 240 128 80 128
WIRE 400 144 304 144
WIRE 464 144 400 144
WIRE 240 160 176 160
WIRE 48 176 -48 176
WIRE -272 224 -272 192
WIRE 400 240 400 144
WIRE -272 256 -272 224
WIRE 64 304 0 304
WIRE 176 304 176 160
WIRE 176 304 144 304
WIRE 208 304 176 304
WIRE -272 368 -272 336
WIRE 208 368 208 304
WIRE 288 368 208 368
WIRE -272 384 -272 368
WIRE 0 400 0 304
WIRE 0 400 -96 400
WIRE 160 400 0 400
WIRE 160 448 160 400
WIRE 288 544 288 368
WIRE 160 592 160 528
WIRE 224 592 160 592
WIRE 48 672 32 672
WIRE 160 672 160 592
WIRE 160 672 112 672
WIRE 288 736 288 640
WIRE 32 752 32 672
WIRE 160 752 160 672
WIRE 32 848 32 832
WIRE 160 848 160 832
WIRE 160 848 32 848
WIRE 288 864 288 816
WIRE 288 880 288 864
WIRE 32 896 32 848
FLAG -208 48 0
FLAG -272 224 0
FLAG -272 80 v+
FLAG 272 112 v+
FLAG -272 368 v-
FLAG 272 176 v-
FLAG 32 896 0
FLAG 288 864 0
FLAG -96 400 v+
FLAG -544 304 0
FLAG -544 224 vref
FLAG -48 176 v+
FLAG 128 176 0
SYMBOL res 160 288 R90
WINDOW 0 0 56 VBottom 2
WINDOW 3 32 56 VTop 2
SYMATTR InstName R2
SYMATTR Value 300
SYMBOL cap -16 32 R90
WINDOW 0 0 32 VBottom 2
WINDOW 3 32 32 VTop 2
SYMATTR InstName C1
SYMATTR Value 1n
SYMBOL voltage -272 96 R0
WINDOW 123 0 0 Left 0
WINDOW 39 0 0 Left 0
SYMATTR InstName V1
SYMATTR Value 5
SYMBOL voltage -272 240 R0
WINDOW 123 0 0 Left 0
WINDOW 39 0 0 Left 0
SYMATTR InstName V2
SYMATTR Value 5
SYMBOL voltage 32 736 R0
WINDOW 0 -32 56 VBottom 2
WINDOW 3 32 56 VTop 2
WINDOW 123 0 0 Left 0
WINDOW 39 0 0 Left 0
SYMATTR InstName V3
SYMATTR Value SINE(0 50m 10k)
SYMBOL res 272 -48 R90
WINDOW 0 0 56 VBottom 2
WINDOW 3 32 56 VTop 2
SYMATTR InstName R4
SYMATTR Value 1k
SYMBOL res 144 432 R0
SYMATTR InstName R5
SYMATTR Value 50k
SYMBOL res 144 736 R0
SYMATTR InstName R6
SYMATTR Value 50k
SYMBOL cap 48 688 R270
WINDOW 0 32 32 VTop 2
WINDOW 3 0 32 VBottom 2
SYMATTR InstName C2
SYMATTR Value 1m
SYMBOL npn 224 544 R0
SYMATTR InstName Q1
SYMATTR Value 2N2222
SYMBOL res 144 160 R90
WINDOW 0 0 56 VBottom 2
WINDOW 3 32 56 VTop 2
SYMATTR InstName R1
SYMATTR Value 10k
SYMBOL voltage -544 208 R0
WINDOW 123 0 0 Left 0
WINDOW 39 0 0 Left 0
SYMATTR InstName V4
SYMATTR Value 5
SYMBOL res 272 720 R0
SYMATTR InstName R7
SYMATTR Value 50
SYMBOL OpAmps\\AD549 272 80 R0
SYMATTR InstName U1
TEXT -160 496 Left 2 !.ic v(n001)=0
TEXT -160 464 Left 2 !.tran 1m
