Version 4
SHEET 1 944 680
WIRE 112 -464 64 -464
WIRE 128 -464 112 -464
WIRE 288 -464 208 -464
WIRE 288 -448 288 -464
WIRE 112 -336 112 -464
WIRE 128 -336 112 -336
WIRE 288 -336 288 -384
WIRE 288 -336 208 -336
WIRE 336 -336 288 -336
WIRE 368 -336 336 -336
WIRE 512 -336 448 -336
WIRE 336 -256 336 -336
WIRE 96 -208 80 -208
WIRE 144 -208 96 -208
WIRE 320 -208 224 -208
WIRE 464 -208 416 -208
WIRE 512 -208 464 -208
WIRE 176 -32 80 -32
WIRE 400 -32 256 -32
WIRE 400 16 400 -32
WIRE 464 16 464 -208
WIRE 464 16 400 16
WIRE -80 48 -208 48
WIRE 80 48 80 -32
WIRE 80 48 -16 48
WIRE -272 112 -272 80
WIRE 80 128 80 48
WIRE 240 128 80 128
WIRE 400 144 400 16
WIRE 400 144 304 144
WIRE 464 144 400 144
WIRE 240 160 208 160
WIRE -272 224 -272 192
WIRE -272 256 -272 224
WIRE 64 304 -48 304
WIRE 208 304 208 160
WIRE 208 304 144 304
WIRE 320 304 208 304
WIRE 464 304 464 144
WIRE 464 304 400 304
WIRE -272 368 -272 336
WIRE -272 384 -272 368
FLAG -208 48 0
FLAG -48 304 0
FLAG -272 224 0
FLAG -272 80 v+
FLAG 272 112 v+
FLAG -272 368 v-
FLAG 272 176 v-
FLAG 64 -464 0
FLAG 96 -208 0
FLAG 512 -336 v+
SYMBOL OpAmps\\AD549 272 80 R0
SYMATTR InstName U1
SYMBOL res 416 288 R90
WINDOW 0 0 56 VBottom 2
WINDOW 3 32 56 VTop 2
SYMATTR InstName R1
SYMATTR Value 1k
SYMBOL res 160 288 R90
WINDOW 0 0 56 VBottom 2
WINDOW 3 32 56 VTop 2
SYMATTR InstName R2
SYMATTR Value 1k
SYMBOL cap -16 32 R90
WINDOW 0 0 32 VBottom 2
WINDOW 3 32 32 VTop 2
SYMATTR InstName C1
SYMATTR Value 1n
SYMBOL voltage -272 96 R0
WINDOW 123 0 0 Left 0
WINDOW 39 0 0 Left 0
SYMATTR InstName V1
SYMATTR Value 5
SYMBOL voltage -272 240 R0
WINDOW 123 0 0 Left 0
WINDOW 39 0 0 Left 0
SYMATTR InstName V2
SYMATTR Value 5
SYMBOL nmos 416 -256 R90
SYMATTR InstName M1
SYMATTR Value Si7336ADP
SYMBOL voltage 224 -464 R90
WINDOW 0 -32 56 VBottom 2
WINDOW 3 32 56 VTop 2
WINDOW 123 0 0 Left 0
WINDOW 39 0 0 Left 0
SYMATTR InstName V3
SYMATTR Value SINE(0 .3 10k)
SYMBOL res 272 -48 R90
WINDOW 0 0 56 VBottom 2
WINDOW 3 32 56 VTop 2
SYMATTR InstName R4
SYMATTR Value 1k
SYMBOL res 464 -352 R90
WINDOW 0 0 56 VBottom 2
WINDOW 3 32 56 VTop 2
SYMATTR InstName R5
SYMATTR Value 10k
SYMBOL res 224 -352 R90
WINDOW 0 0 56 VBottom 2
WINDOW 3 32 56 VTop 2
SYMATTR InstName R6
SYMATTR Value 25k
SYMBOL cap 272 -448 R0
SYMATTR InstName C2
SYMATTR Value 1µ
SYMBOL res 240 -224 R90
WINDOW 0 0 56 VBottom 2
WINDOW 3 32 56 VTop 2
SYMATTR InstName R3
SYMATTR Value 1k
TEXT -160 496 Left 2 !.ic v(n001)=0
TEXT -160 464 Left 2 !.tran 1m
